%chk=C4H10.chk
# hf/3-21g geom=connectivity

Title Card Required

0 1
 C              
 C                  1            B1
 H                  1            B2    2            A1
 H                  2            B3    1            A2    3            D1    0
 H                  2            B4    1            A3    3            D2    0
 H                  2            B5    1            A4    4            D3    0
 H                  1            B6    2            A5    4            D4    0
 C                  1            B7    2            A6    7            D5    0
 H                  8            B8    1            A7    2            D6    0
 H                  8            B9    1            A8    2            D7    0
 C                  8           B10    1            A9    2            D8    0
 H                 11           B11    8           A10    1            D9    0
 H                 11           B12    8           A11    1           D10    0
 H                 11           B13    8           A12    1           D11    0

   B1             1.54000000
   B2             1.07000000
   B3             1.07000000
   B4             1.07000000
   B5             1.07000000
   B6             1.07000000
   B7             1.54000000
   B8             1.07000000
   B9             1.07000000
   B10            1.54000000
   B11            1.07000000
   B12            1.07000000
   B13            1.07000000
   A1           109.47125080
   A2           109.47123134
   A3           109.47120255
   A4           109.47120255
   A5           109.47120255
   A6           109.47121829
   A7           109.47120255
   A8           109.47120255
   A9           109.47123134
   A10          109.47120255
   A11          109.47120255
   A12          109.47123134
   D1           179.98892215
   D2            59.98892955
   D3           119.99999260
   D4           -60.01109260
   D5           120.00000059
   D6           179.99781781
   D7           -60.00216740
   D8            59.99782520
   D9           155.36661703
   D10          -84.63336818
   D11           35.36662442

 1 7 1.0 3 1.0 2 1.0 8 1.0
 2 6 1.0 5 1.0 4 1.0
 3
 4
 5
 6
 7
 8 9 1.0 10 1.0 11 1.0
 9
 10
 11 12 1.0 13 1.0 14 1.0
 12
 13
 14

