%chk=tC4H10.chk
# hf/3-21g geom=connectivity

Title Card Required

0 1
 C              
 C                  1            B1
 C                  1            B2    2            A1
 H                  2            B3    1            A2    3            D1    0
 H                  2            B4    1            A3    3            D2    0
 H                  2            B5    1            A4    3            D3    0
 C                  1            B6    2            A5    3            D4    0
 H                  1            B7    2            A6    4            D5    0
 H                  3            B8    1            A7    2            D6    0
 H                  3            B9    1            A8    2            D7    0
 H                  3           B10    1            A9    2            D8    0
 H                  7           B11    1           A10    2            D9    0
 H                  7           B12    1           A11    2           D10    0
 H                  7           B13    1           A12    2           D11    0

   B1             1.54000000
   B2             1.54000000
   B3             1.07000000
   B4             1.07000000
   B5             1.07000000
   B6             1.54000000
   B7             1.07000000
   B8             1.07000000
   B9             1.07000000
   B10            1.07000000
   B11            1.07000000
   B12            1.07000000
   B13            1.07000000
   A1           109.47121829
   A2           109.47123134
   A3           109.47120255
   A4           109.47120255
   A5           109.47120255
   A6           109.47125080
   A7           109.47120255
   A8           109.47123134
   A9           109.47120255
   A10          109.47120255
   A11          109.47120255
   A12          109.47123134
   D1            59.98890799
   D2           -60.01108461
   D3           179.98890059
   D4          -120.00000059
   D5           179.98892215
   D6           -60.00216740
   D7            59.99782520
   D8           179.99781781
   D9           179.99857116
   D10          -60.00141405
   D11           59.99857856

 1 8 1.0 2 1.0 3 1.0 7 1.0
 2 6 1.0 5 1.0 4 1.0
 3 11 1.0 9 1.0 10 1.0
 4
 5
 6
 7 12 1.0 13 1.0 14 1.0
 8
 9
 10
 11
 12
 13
 14

